<routes>
   <vType id="type1" accel="0.8" decel="4.5" sigma="0.5" length="5" maxSpeed="102"/>
   <vehicle id="c243b97c579b441827b59ade5f9c5c3b_0" type="type1" depart="0.0" color="1,1,0" departPos="561.218469528" departSpeed="9.2" 				arrivalPos="13.2613522706">
      <route edges="edgeL-1-2 edgeL-2-3 edgeL-3-3_0"/>
   </vehicle>
   <vehicle id="f9643897f57a000c2facc2fe39de8947_0" type="type1" depart="1.0" color="1,1,0" departPos="-4.14933510062" departSpeed="7.2" 				arrivalPos="13.848379959">
      <route edges="edgeL-4-3 edgeL-3-2 edgeL-2-1 edgeL-1-1_2"/>
   </vehicle>
   <vehicle id="b30d752005d4392f8b4bfbdee2d54710_0" type="type1" depart="10.0" color="1,1,0" departPos="55.0556580098" departSpeed="16.5" 				arrivalPos="24.551258398">
      <route edges="edgeL-6_1-6 edgeL-6-6_0"/>
   </vehicle>
   <vehicle id="c00a55ffd526f9bacbb3529888531af5_0" type="type1" depart="29.0" color="1,1,0" departPos="81.9733789209" departSpeed="1.2" 				arrivalPos="13.4919411047">
      <route edges="edgeL-7_0-7 edgeL-7-6 edgeL-6-5 edgeL-5-4 edgeL-4-3 edgeL-3-2 edgeL-2-1 edgeL-1-1_2"/>
   </vehicle>
   <vehicle id="03105e580fe53482e2a4b85def9d7a0a_0" type="type1" depart="29.0" color="1,1,0" departPos="168.290734747" departSpeed="15.8" 				arrivalPos="48.7475317525">
      <route edges="edgeL-7_1-7 edgeL-7-6"/>
   </vehicle>
   <vehicle id="ccb96aad4d317f06f0635034c5fd7a24_0" type="type1" depart="43.0" color="1,1,0" departPos="412.954378556" departSpeed="11.0" 				arrivalPos="64.3194130845">
      <route edges="edgeL-7_2-7 edgeL-7-6 edgeL-6-5"/>
   </vehicle>
   <vehicle id="7e7c25369cbe90a226886a17a2d0cde0_0" type="type1" depart="63.0" color="1,1,0" departPos="433.000558489" departSpeed="8.2" 				arrivalPos="28.3022498116">
      <route edges="edgeL-1-2 edgeL-2-2_0"/>
   </vehicle>
   <vehicle id="44059ba1faca1e97e9c6483a53c949ea_0" type="type1" depart="89.0" color="1,1,0" departPos="63.3864522943" departSpeed="10.8" 				arrivalPos="15.8287791428">
      <route edges="edgeL-6_0-6 edgeL-6-6_1"/>
   </vehicle>
   <vehicle id="e8fd86a18047027718c43ee21f41f813_0" type="type1" depart="101.0" color="1,1,0" departPos="27.350387997" departSpeed="6.9" 				arrivalPos="17.8408564121">
      <route edges="edgeL-6-7 edgeL-7-7_2"/>
   </vehicle>
   <vehicle id="e526ed375bc779c447fb1b4d77c5dcc6_0" type="type1" depart="112.0" color="1,1,0" departPos="32.1443205304" departSpeed="10.4" 				arrivalPos="1.75927607121">
      <route edges="edgeL-4_0-4 edgeL-4-4_1"/>
   </vehicle>
   <vehicle id="4d5b41878ac4c91f9b9ffe2cf99ab0c7_0" type="type1" depart="114.0" color="1,1,0" departPos="557.576554093" departSpeed="7.7" 				arrivalPos="14.026599486">
      <route edges="edgeL-7-6 edgeL-6-5 edgeL-5-4 edgeL-4-3 edgeL-3-2 edgeL-2-1 edgeL-1-1_2"/>
   </vehicle>
   <vehicle id="e63dc248f75959e003824cce56e9b138_0" type="type1" depart="118.0" color="1,1,0" departPos="397.136347584" departSpeed="11.6" 				arrivalPos="-4.55127368795">
      <route edges="edgeL-5_1-5 edgeL-5-4 edgeL-4-3 edgeL-3-2 edgeL-2-1 edgeL-1-1_1"/>
   </vehicle>
   <vehicle id="91e1720e5be7f8de0f348ccd0e507abb_0" type="type1" depart="119.0" color="1,1,0" departPos="855.556118409" departSpeed="13.8" 				arrivalPos="24.9392710749">
      <route edges="edgeL-6-5 edgeL-5-4 edgeL-4-3"/>
   </vehicle>
   <vehicle id="176f2f10ad096856d983fdc915fde457_0" type="type1" depart="120.0" color="1,1,0" departPos="32.7835955114" departSpeed="10.1" 				arrivalPos="59.453486493">
      <route edges="edgeL-5_0-5 edgeL-5-6 edgeL-6-7 edgeL-7-7_1"/>
   </vehicle>
   <vehicle id="e99fc29d026d5d48bc71d9ebed62d4c9_0" type="type1" depart="123.0" color="1,1,0" departPos="46.1143920836" departSpeed="9.9" 				arrivalPos="59.453486493">
      <route edges="edgeL-6-7 edgeL-7-7_1"/>
   </vehicle>
   <vehicle id="7f8aebf3c57b10678dfc08f7312345a9_0" type="type1" depart="127.0" color="1,1,0" departPos="32.7835955114" departSpeed="11.9" 				arrivalPos="61.2389877893">
      <route edges="edgeL-5_0-5 edgeL-5-6 edgeL-6-7 edgeL-7-7_1"/>
   </vehicle>
   <vehicle id="2eb9f459764d7dea62a7c28cdc7cc6c0_0" type="type1" depart="135.0" color="1,1,0" departPos="44.1610920226" departSpeed="9.2" 				arrivalPos="12.779063396">
      <route edges="edgeL-5-4 edgeL-4-3 edgeL-3-2 edgeL-2-1 edgeL-1-1_2"/>
   </vehicle>
   <vehicle id="7436e017ad50126b1fe4d813a7997d25_0" type="type1" depart="185.0" color="1,1,0" departPos="553.795550264" departSpeed="5.1" 				arrivalPos="465.571158859">
      <route edges="edgeL-1_1-1 edgeL-1-2"/>
   </vehicle>
   <vehicle id="bc65a289109cefd38f0ae418b0dee472_0" type="type1" depart="190.0" color="1,1,0" departPos="4.0209212157" departSpeed="7.8" 				arrivalPos="26.757943266">
      <route edges="edgeL-4-5 edgeL-5-6"/>
   </vehicle>
   <vehicle id="53eb013571ecc9e0fb25358257d0603e_0" type="type1" depart="196.0" color="1,1,0" departPos="283.875849648" departSpeed="18.9" 				arrivalPos="11.6454067918">
      <route edges="edgeL-1_1-1 edgeL-1-2 edgeL-2-3 edgeL-3-3_1"/>
   </vehicle>
   <vehicle id="6d2424625ed54919eaf59567f7bae5ff_0" type="type1" depart="200.0" color="1,1,0" departPos="176.361124123" departSpeed="21.0" 				arrivalPos="36.4055054636">
      <route edges="edgeL-1_1-1 edgeL-1-2 edgeL-2-3 edgeL-3-4 edgeL-4-5"/>
   </vehicle>
   <vehicle id="e352840c7839670d64cb982922d7ca08_0" type="type1" depart="232.0" color="1,1,0" departPos="57.8955525932" departSpeed="6.1" 				arrivalPos="80.220352663">
      <route edges="edgeL-6_1-6 edgeL-6-7"/>
   </vehicle>
   <vehicle id="dddd65929d991217d922f43fab77feb5_0" type="type1" depart="243.0" color="1,1,0" departPos="54.4191787904" departSpeed="12.6" 				arrivalPos="7.09470153196">
      <route edges="edgeL-4_0-4 edgeL-4-4_1"/>
   </vehicle>
   <vehicle id="7e7c25369cbe90a226886a17a2d0cde0_1" type="type1" depart="249.0" color="1,1,0" departPos="153.808490937" departSpeed="9.3" 				arrivalPos="24.76701855">
      <route edges="edgeL-3-4 edgeL-4-5"/>
   </vehicle>
   <vehicle id="0ac5e978a4ea24ca6f59abd965a4b0a7_0" type="type1" depart="272.0" color="1,1,0" departPos="7.66255771369" departSpeed="6.3" 				arrivalPos="14.026599486">
      <route edges="edgeL-4-3 edgeL-3-2 edgeL-2-1 edgeL-1-1_2"/>
   </vehicle>
   <vehicle id="e567111d6161f8e3712e5b7c53e50809_0" type="type1" depart="279.0" color="1,1,0" departPos="12.1725606692" departSpeed="11.0" 				arrivalPos="44.2767229744">
      <route edges="edgeL-6-7 edgeL-7-7_1"/>
   </vehicle>
   <vehicle id="b8383b7cca4b0df9b0bdeb98ada1b867_0" type="type1" depart="293.0" color="1,1,0" departPos="34.4928947983" departSpeed="8.1" 				arrivalPos="35.3492154928">
      <route edges="edgeL-6-7 edgeL-7-7_1"/>
   </vehicle>
   <vehicle id="7b571b0cf617ab6c9df21c2525ed28ec_0" type="type1" depart="340.0" color="1,1,0" departPos="550.434047292" departSpeed="4.8" 				arrivalPos="841.076065744">
      <route edges="edgeL-7-6"/>
   </vehicle>
   <vehicle id="f4dc8fe9460f2d60b86fcbff321ad235_0" type="type1" depart="351.0" color="1,1,0" departPos="593.304011958" departSpeed="9.8" 				arrivalPos="841.076065744">
      <route edges="edgeL-7-6"/>
   </vehicle>
   <vehicle id="0eae62119cd844bf50dbdd4da250ef8a_0" type="type1" depart="381.0" color="1,1,0" departPos="45.4867035857" departSpeed="12.6" 				arrivalPos="-2.9466196296">
      <route edges="edgeL-4_0-4 edgeL-4-4_1"/>
   </vehicle>
   <vehicle id="2661785e4fbcbf988f28df831de8c419_0" type="type1" depart="413.0" color="1,1,0" departPos="57.8955525932" departSpeed="12.1" 				arrivalPos="16.429183442">
      <route edges="edgeL-6_1-6 edgeL-6-6_0"/>
   </vehicle>
   <vehicle id="6b79cda4b9ab8ae25344b873ae6869b8_0" type="type1" depart="419.0" color="1,1,0" departPos="70.6321195121" departSpeed="10.6" 				arrivalPos="65.7027425299">
      <route edges="edgeL-6_1-6 edgeL-6-7 edgeL-7-7_1"/>
   </vehicle>
   <vehicle id="aeca1ce037957ebedcc332160277ceb0_0" type="type1" depart="420.0" color="1,1,0" departPos="185.598765404" departSpeed="6.3" 				arrivalPos="9.87602716416">
      <route edges="edgeL-5-4 edgeL-4-3 edgeL-3-2 edgeL-2-1 edgeL-1-1_1"/>
   </vehicle>
   <vehicle id="a0ee0b29d9adce47cf68a20a452bd3a2_0" type="type1" depart="425.0" color="1,1,0" departPos="144.166556123" departSpeed="15.8" 				arrivalPos="-4.66646104083">
      <route edges="edgeL-7_1-7 edgeL-7-6 edgeL-6-5"/>
   </vehicle>
   <vehicle id="9ecd7ebc515b7cc6c0e244d597f4e39e_0" type="type1" depart="430.0" color="1,1,0" departPos="152.22122008" departSpeed="14.0" 				arrivalPos="20.8626752075">
      <route edges="edgeL-7_1-7 edgeL-7-6 edgeL-6-5 edgeL-5-4 edgeL-4-3 edgeL-3-2 edgeL-2-1"/>
   </vehicle>
   <vehicle id="1ee9e8e8983cbbf1d95e8f8dd36bfd6a_0" type="type1" depart="438.0" color="1,1,0" departPos="38.0641486989" departSpeed="10.2" 				arrivalPos="44.2767229744">
      <route edges="edgeL-6-7 edgeL-7-7_1"/>
   </vehicle>
   <vehicle id="6cc8828499db9f4e1b1a824f0020aff7_0" type="type1" depart="462.0" color="1,1,0" departPos="7.66255771369" departSpeed="5.3" 				arrivalPos="13.4335647206">
      <route edges="edgeL-4-3 edgeL-3-2 edgeL-2-1 edgeL-1-1_1"/>
   </vehicle>
   <vehicle id="280c65bec803c5a4ecbde42b2e558a16_0" type="type1" depart="463.0" color="1,1,0" departPos="298.303150943" departSpeed="12.9" 				arrivalPos="12.3224625356">
      <route edges="edgeL-1_1-1 edgeL-1-2 edgeL-2-3 edgeL-3-3_0"/>
   </vehicle>
   <vehicle id="9b2fb57d3a8c6b893d3a275693520fb1_0" type="type1" depart="483.0" color="1,1,0" departPos="181.681995969" departSpeed="16.2" 				arrivalPos="-3.77360508597">
      <route edges="edgeL-7_1-7 edgeL-7-6 edgeL-6-5"/>
   </vehicle>
   <vehicle id="bbd98f39748bec99c0432c0ec742ed1c_0" type="type1" depart="526.0" color="1,1,0" departPos="371.330596931" departSpeed="4.8" 				arrivalPos="13.104609704">
      <route edges="edgeL-1_0-1 edgeL-1-2 edgeL-2-3 edgeL-3-3_0"/>
   </vehicle>
   <vehicle id="fb92473c31e329170f257cbb563317c8_0" type="type1" depart="565.0" color="1,1,0" departPos="302.750073138" departSpeed="0.0" 				arrivalPos="571.218469528">
      <route edges="edgeL-1_1-1 edgeL-1-2"/>
   </vehicle>
   <vehicle id="1a457aad55a008c78911afd759c8bf88_0" type="type1" depart="578.0" color="1,1,0" departPos="277.54099224" departSpeed="13.1" 				arrivalPos="32.115082995">
      <route edges="edgeL-4-5 edgeL-5-6"/>
   </vehicle>
   <vehicle id="f61da62a424e29965c44750b1db22074_0" type="type1" depart="584.0" color="1,1,0" departPos="64.390617526" departSpeed="4.7" 				arrivalPos="4.31417656996">
      <route edges="edgeL-7_2-7 edgeL-7-7_0"/>
   </vehicle>
   <vehicle id="04469f43c300e655e4349c8870d18db8_0" type="type1" depart="590.0" color="1,1,0" departPos="80.8627924455" departSpeed="2.3" 				arrivalPos="37.1409583253">
      <route edges="edgeL-7_0-7 edgeL-7-6"/>
   </vehicle>
   <vehicle id="242c6a525355b66794a75277369fe975_0" type="type1" depart="595.0" color="1,1,0" departPos="177.218242229" departSpeed="16.4" 				arrivalPos="32.6768906996">
      <route edges="edgeL-7_1-7 edgeL-7-6"/>
   </vehicle>
   <vehicle id="ed539a26b701cb39181be2c093ef417c_0" type="type1" depart="598.0" color="1,1,0" departPos="76.3119019774" departSpeed="7.7" 				arrivalPos="5.96577238617">
      <route edges="edgeL-6_1-6 edgeL-6-6_0"/>
   </vehicle>
   <vehicle id="510a9be7acfa3d8ec8e19737bef93d91_0" type="type1" depart="619.0" color="1,1,0" departPos="153.113971228" departSpeed="13.4" 				arrivalPos="-0.128321021034">
      <route edges="edgeL-7_1-7 edgeL-7-7_0"/>
   </vehicle>
   <vehicle id="1ec1462d9c0013ee6f31565214f3947c_0" type="type1" depart="649.0" color="1,1,0" departPos="195.136770219" departSpeed="20.0" 				arrivalPos="11.3359207778">
      <route edges="edgeL-1_1-1 edgeL-1-2 edgeL-2-3 edgeL-3-4"/>
   </vehicle>
   <vehicle id="a27693d8d46a4754c879f047651cd8c0_0" type="type1" depart="659.0" color="1,1,0" departPos="7.62791264034" departSpeed="6.9" 				arrivalPos="24.9722303563">
      <route edges="edgeL-4-5 edgeL-5-6"/>
   </vehicle>
   <vehicle id="ce984d512179cddec4fbf813c90af4a4_0" type="type1" depart="660.0" color="1,1,0" departPos="22.8863213711" departSpeed="5.4" 				arrivalPos="54.9897327522">
      <route edges="edgeL-6-7 edgeL-7-7_1"/>
   </vehicle>
   <vehicle id="bbb39f530b95cebe61e2a9a1bcc176fe_0" type="type1" depart="672.0" color="1,1,0" departPos="51.0175621261" departSpeed="9.4" 				arrivalPos="12.056662787">
      <route edges="edgeL-6_0-6 edgeL-6-6_1"/>
   </vehicle>
   <vehicle id="ae5a7c006b36b0004ea1f1d39e1fce0b_0" type="type1" depart="677.0" color="1,1,0" departPos="41.2592945993" departSpeed="3.9" 				arrivalPos="25.8215239374">
      <route edges="edgeL-5-4 edgeL-4-3"/>
   </vehicle>
   <vehicle id="aa7e63bdf16501879896047ac16ec9dc_0" type="type1" depart="707.0" color="1,1,0" departPos="33.9900706872" departSpeed="0.0" 				arrivalPos="31.7840779744">
      <route edges="edgeL-7_0-7 edgeL-7-6"/>
   </vehicle>
   <vehicle id="68af7da294597f93712ff5414d376587_0" type="type1" depart="762.0" color="1,1,0" departPos="258.77593668" departSpeed="0.0" 				arrivalPos="46.2592151839">
      <route edges="edgeL-1_1-1 edgeL-1-2 edgeL-2-3 edgeL-3-4 edgeL-4-5"/>
   </vehicle>
   <vehicle id="b2e4ff1861b3ebb07dd531ae9e2be5ca_0" type="type1" depart="783.0" color="1,1,0" departPos="68.2798605407" departSpeed="10.9" 				arrivalPos="6.20431883251">
      <route edges="edgeL-6_1-6 edgeL-6-6_0"/>
   </vehicle>
   <vehicle id="3520a17f02da037efd17a108b2ea4933_0" type="type1" depart="801.0" color="1,1,0" departPos="121.06626939" departSpeed="4.9" 				arrivalPos="381.330596931">
      <route edges="edgeL-1_0-1"/>
   </vehicle>
   <vehicle id="c3c7ccc233e76a8de37f54148ba21d38_0" type="type1" depart="813.0" color="1,1,0" departPos="46.1143920836" departSpeed="8.3" 				arrivalPos="45.1694741225">
      <route edges="edgeL-6-7 edgeL-7-7_1"/>
   </vehicle>
   <vehicle id="a936cc04d64db72161612688268ba646_0" type="type1" depart="815.0" color="1,1,0" departPos="162.934229858" departSpeed="12.5" 				arrivalPos="-4.66646104083">
      <route edges="edgeL-7_1-7 edgeL-7-6 edgeL-6-5"/>
   </vehicle>
   <vehicle id="93423d9db26a67b71ffdba2fe8a15a10_0" type="type1" depart="850.0" color="1,1,0" departPos="49.6856449843" departSpeed="9.2" 				arrivalPos="36.2419666409">
      <route edges="edgeL-6-7 edgeL-7-7_1"/>
   </vehicle>
   <vehicle id="86448f28da65f04d7f2e43f26e3b0ce2_0" type="type1" depart="923.0" color="1,1,0" departPos="75.5919380514" departSpeed="6.9" 				arrivalPos="4.53972232361">
      <route edges="edgeL-4-3 edgeL-3-2 edgeL-2-1 edgeL-1-1_1"/>
   </vehicle>
   <vehicle id="6161875ab1b319e649a986b1ca5e5b80_0" type="type1" depart="929.0" color="1,1,0" departPos="49.9717111113" departSpeed="10.8" 				arrivalPos="-4.8502152702">
      <route edges="edgeL-4_0-4 edgeL-4-4_1"/>
   </vehicle>
   <vehicle id="4bf0c2e6e0230eac523635482dbb68e0_0" type="type1" depart="960.0" color="1,1,0" departPos="92.3713899032" departSpeed="5.6" 				arrivalPos="9.70446216321">
      <route edges="edgeL-6_0-6 edgeL-6-6_1"/>
   </vehicle>
   <vehicle id="7436e017ad50126b1fe4d813a7997d25_1" type="type1" depart="965.0" color="1,1,0" departPos="-0.44901929085" departSpeed="2.8" 				arrivalPos="5.67332758289">
      <route edges="edgeL-4-3 edgeL-3-2"/>
   </vehicle>
   <vehicle id="b59054c333b1cf1afce4406ab25f7569_0" type="type1" depart="969.0" color="1,1,0" departPos="28.3650786788" departSpeed="3.3" 				arrivalPos="48.7404767152">
      <route edges="edgeL-5-6 edgeL-6-7 edgeL-7-7_1"/>
   </vehicle>
   <vehicle id="197fdf7f63d567249b3d826100264ebf_0" type="type1" depart="971.0" color="1,1,0" departPos="79.0495353735" departSpeed="0.0" 				arrivalPos="10.6367459256">
      <route edges="edgeL-6_0-6 edgeL-6-6_1"/>
   </vehicle>
   <vehicle id="a27693d8d46a4754c879f047651cd8c0_1" type="type1" depart="980.0" color="1,1,0" departPos="656.833325266" departSpeed="3.9" 				arrivalPos="38.9202180855">
      <route edges="edgeL-5-6 edgeL-6-7 edgeL-7-7_1"/>
   </vehicle>
   <vehicle id="f47819a549c67dd9ceacfda9d6725d70_0" type="type1" depart="991.0" color="1,1,0" departPos="170.968987191" departSpeed="14.0" 				arrivalPos="49.6403444777">
      <route edges="edgeL-7_1-7 edgeL-7-6"/>
   </vehicle>
   <vehicle id="fb92473c31e329170f257cbb563317c8_1" type="type1" depart="1002.0" color="1,1,0" departPos="159.273311792" departSpeed="1.7" 				arrivalPos="22.2936604918">
      <route edges="edgeL-3-4 edgeL-4-5 edgeL-5-6"/>
   </vehicle>
   <vehicle id="c5725096d2340b7ebebcf5fb889b9a89_0" type="type1" depart="1002.0" color="1,1,0" departPos="387.074395917" departSpeed="9.2" 				arrivalPos="-0.986690782738">
      <route edges="edgeL-7_1-7 edgeL-7-7_0"/>
   </vehicle>
   <vehicle id="4a5770aad6b2170975323aea0b50a3e0_0" type="type1" depart="1006.0" color="1,1,0" departPos="76.8534175115" departSpeed="3.8" 				arrivalPos="3.09250764153">
      <route edges="edgeL-6_0-6 edgeL-6-6_1"/>
   </vehicle>
   <vehicle id="87ccb5c75eca52179fe921f816b78bde_0" type="type1" depart="1034.0" color="1,1,0" departPos="10.0374020329" departSpeed="9.5" 				arrivalPos="-0.675354430421">
      <route edges="edgeL-4_1-4 edgeL-4-4_0"/>
   </vehicle>
   <vehicle id="2661785e4fbcbf988f28df831de8c419_1" type="type1" depart="1035.0" color="1,1,0" departPos="71.2179898058" departSpeed="5.2" 				arrivalPos="0.74030479626">
      <route edges="edgeL-6_0-6 edgeL-6-6_1"/>
   </vehicle>
   <vehicle id="ae5a7c006b36b0004ea1f1d39e1fce0b_1" type="type1" depart="1058.0" color="1,1,0" departPos="-4.7338964777" departSpeed="4.1" 				arrivalPos="-0.506719287858">
      <route edges="edgeL-3_0-3 edgeL-3-2"/>
   </vehicle>
   <vehicle id="c72d51c6a3c55b666274b2329cdc5aa4_0" type="type1" depart="1062.0" color="1,1,0" departPos="29.7191283039" departSpeed="14.2" 				arrivalPos="4.02479307942">
      <route edges="edgeL-6_0-6 edgeL-6-6_1"/>
   </vehicle>
   <vehicle id="aa7e63bdf16501879896047ac16ec9dc_1" type="type1" depart="1063.0" color="1,1,0" departPos="96.1119396927" departSpeed="3.7" 				arrivalPos="59.453486493">
      <route edges="edgeL-6-7 edgeL-7-7_1"/>
   </vehicle>
   <vehicle id="ccb96aad4d317f06f0635034c5fd7a24_1" type="type1" depart="1077.0" color="1,1,0" departPos="2.24512638605" departSpeed="0.0" 				arrivalPos="-0.493292916525">
      <route edges="edgeL-4-3 edgeL-3-2 edgeL-2-1 edgeL-1-1_0"/>
   </vehicle>
   <vehicle id="496cdcfaca59e961e251d568f5316165_0" type="type1" depart="1118.0" color="1,1,0" departPos="178.459659494" departSpeed="6.7" 				arrivalPos="5.89805297659">
      <route edges="edgeL-5-4 edgeL-4-3"/>
   </vehicle>
   <vehicle id="52375bb5b35d4311eb099483f5b6737e_0" type="type1" depart="1120.0" color="1,1,0" departPos="234.565408173" departSpeed="11.2" 				arrivalPos="23.9739687761">
      <route edges="edgeL-1_1-1 edgeL-1-2 edgeL-2-2_0"/>
   </vehicle>
   <vehicle id="f3bc6bd1462edd25f7ae844143e8f65d_0" type="type1" depart="1120.0" color="1,1,0" departPos="49.8635002664" departSpeed="12.8" 				arrivalPos="5.8206378553">
      <route edges="edgeL-6_1-6 edgeL-6-6_0"/>
   </vehicle>
   <vehicle id="7436e017ad50126b1fe4d813a7997d25_2" type="type1" depart="1160.0" color="1,1,0" departPos="13.8148037436" departSpeed="6.3" 				arrivalPos="46.2592151839">
      <route edges="edgeL-2-3 edgeL-3-4 edgeL-4-5"/>
   </vehicle>
   <vehicle id="0adfc0613122c69a44c238c1b496b156_0" type="type1" depart="1161.0" color="1,1,0" departPos="298.303150943" departSpeed="0.0" 				arrivalPos="-2.24047960883">
      <route edges="edgeL-1_1-1 edgeL-1-2 edgeL-2-3 edgeL-3-4"/>
   </vehicle>
   <vehicle id="e1b518d5a198d9ff01eb7b36b3c724ac_0" type="type1" depart="1226.0" color="1,1,0" departPos="271.325893209" departSpeed="18.3" 				arrivalPos="469.269289941">
      <route edges="edgeL-1_1-1 edgeL-1-2"/>
   </vehicle>
   <vehicle id="a439f43b2eff2cda428f0dcedf50fc4b_0" type="type1" depart="1230.0" color="1,1,0" departPos="28.2432017221" departSpeed="8.4" 				arrivalPos="44.2767229744">
      <route edges="edgeL-6-7 edgeL-7-7_1"/>
   </vehicle>
   <vehicle id="977133799d4c7f49b1806386915adb60_0" type="type1" depart="1235.0" color="1,1,0" departPos="295.634998025" departSpeed="16.1" 				arrivalPos="65.4703629041">
      <route edges="edgeL-1_1-1 edgeL-1-1_2"/>
   </vehicle>
   <vehicle id="6e46d480ea5245d85b6bc87cca6c7292_0" type="type1" depart="1236.0" color="1,1,0" departPos="81.5201757791" departSpeed="6.6" 				arrivalPos="192.370636684">
      <route edges="edgeL-3_1-3"/>
   </vehicle>
   <vehicle id="2be7c2e73198667e568222b84fd591b9_0" type="type1" depart="1255.0" color="1,1,0" departPos="334.728319691" departSpeed="5.6" 				arrivalPos="-3.20793758229">
      <route edges="edgeL-7_2-7 edgeL-7-7_0"/>
   </vehicle>
   <vehicle id="f606314721f3484a563c6537859525db_0" type="type1" depart="1259.0" color="1,1,0" departPos="330.291634364" departSpeed="3.7" 				arrivalPos="-2.09731418251">
      <route edges="edgeL-7_2-7 edgeL-7-7_0"/>
   </vehicle>
   <vehicle id="66e055033a638d395de45cc7e4b17615_0" type="type1" depart="1281.0" color="1,1,0" departPos="28.3801140839" departSpeed="5.6" 				arrivalPos="10.0767124036">
      <route edges="edgeL-7_0-7 edgeL-7-7_2"/>
   </vehicle>
   <vehicle id="ed39ca3d53a06df4d213a79d049d45ba_1" type="type1" depart="1301.0" color="1,1,0" departPos="16.4970569974" departSpeed="4.0" 				arrivalPos="13.848379959">
      <route edges="edgeL-5-4 edgeL-4-3 edgeL-3-2 edgeL-2-1 edgeL-1-1_2"/>
   </vehicle>
   <vehicle id="eb03b38db809195a446295b9bce18c1f_0" type="type1" depart="1304.0" color="1,1,0" departPos="162.934229858" departSpeed="14.9" 				arrivalPos="18.4655624742">
      <route edges="edgeL-7_1-7 edgeL-7-6 edgeL-6-5 edgeL-5-4"/>
   </vehicle>
   <vehicle id="ed90d426fe7570650d97d135b35b8c93_0" type="type1" depart="1312.0" color="1,1,0" departPos="67.778682098" departSpeed="8.6" 				arrivalPos="29.1742218384">
      <route edges="edgeL-6_0-6 edgeL-6-5 edgeL-5-4"/>
   </vehicle>
   <vehicle id="4df1f537a04f809ad402d613c4f60ac7_0" type="type1" depart="1313.0" color="1,1,0" departPos="290.200116698" departSpeed="10.1" 				arrivalPos="69.5065919611">
      <route edges="edgeL-1_1-1 edgeL-1-2 edgeL-2-3 edgeL-3-4 edgeL-4-5 edgeL-5-6 edgeL-6-7"/>
   </vehicle>
   <vehicle id="f2ec003d51a8f8d7c8e818d43634e740_0" type="type1" depart="1320.0" color="1,1,0" departPos="93.3082850757" departSpeed="14.1" 				arrivalPos="22.2099331518">
      <route edges="edgeL-6_1-6 edgeL-6-6_0"/>
   </vehicle>
   <vehicle id="0992a1a8d6d81f2170d693e68c46dc9a_0" type="type1" depart="1332.0" color="1,1,0" departPos="553.795550264" departSpeed="5.4" 				arrivalPos="25.6594071635">
      <route edges="edgeL-1_1-1 edgeL-1-2 edgeL-2-3 edgeL-3-4 edgeL-4-5"/>
   </vehicle>
   <vehicle id="290e3037c927aac365a327e38b2eac6c_0" type="type1" depart="1334.0" color="1,1,0" departPos="74.8919574718" departSpeed="7.0" 				arrivalPos="31.7782119003">
      <route edges="edgeL-6_1-6 edgeL-6-7 edgeL-7-7_1"/>
   </vehicle>
   <vehicle id="7ca61fd2abac5ad30dabfd97790c1a21_0" type="type1" depart="1356.0" color="1,1,0" departPos="154.006721377" departSpeed="17.0" 				arrivalPos="43.3906514015">
      <route edges="edgeL-7_1-7 edgeL-7-6"/>
   </vehicle>
   <vehicle id="1e1d0db7f2d22e06e9a32f71a2d4cc66_0" type="type1" depart="1356.0" color="1,1,0" departPos="431.929144748" departSpeed="6.9" 				arrivalPos="-0.895159822257">
      <route edges="edgeL-4_1-4 edgeL-4-3 edgeL-3-2 edgeL-2-1 edgeL-1-1_1"/>
   </vehicle>
   <vehicle id="85f7b056d4ccd65c99b5250540a5b6c4_0" type="type1" depart="1370.0" color="1,1,0" departPos="0.433232583652" departSpeed="5.1" 				arrivalPos="-1.78454446039">
      <route edges="edgeL-4-3 edgeL-3-2 edgeL-2-1 edgeL-1-1_1"/>
   </vehicle>
   <vehicle id="e4ed34a59cb8f883682969ce3cfbe5ff_0" type="type1" depart="1416.0" color="1,1,0" departPos="76.3119019774" departSpeed="9.7" 				arrivalPos="18.7705108241">
      <route edges="edgeL-6_1-6 edgeL-6-6_0"/>
   </vehicle>
   <vehicle id="0023308cee4ceb45ddc43e6f5fc0346f_0" type="type1" depart="1427.0" color="1,1,0" departPos="64.6622966498" departSpeed="6.9" 				arrivalPos="13.848379959">
      <route edges="edgeL-4-3 edgeL-3-2 edgeL-2-1 edgeL-1-1_2"/>
   </vehicle>
   <vehicle id="496cdcfaca59e961e251d568f5316165_1" type="type1" depart="1435.0" color="1,1,0" departPos="135.820829291" departSpeed="6.6" 				arrivalPos="63.0244900855">
      <route edges="edgeL-3-4 edgeL-4-5 edgeL-5-6 edgeL-6-7 edgeL-7-7_1"/>
   </vehicle>
   <vehicle id="d146aa26f521bd7a852fb3c9e609bdf2_0" type="type1" depart="1448.0" color="1,1,0" departPos="59.9471463973" departSpeed="17.5" 				arrivalPos="18.6686122824">
      <route edges="edgeL-6_0-6 edgeL-6-6_1"/>
   </vehicle>
   <vehicle id="88a20a5421800d37fb0a23258cbed48e_0" type="type1" depart="1460.0" color="1,1,0" departPos="2.19773830884" departSpeed="4.6" 				arrivalPos="14.3830383404">
      <route edges="edgeL-4-3 edgeL-3-2 edgeL-2-1 edgeL-1-1_2"/>
   </vehicle>
   <vehicle id="4904a4cfcee7e5d0a2ac26ba4d261439_0" type="type1" depart="1479.0" color="1,1,0" departPos="553.795550264" departSpeed="2.6" 				arrivalPos="60.573493689">
      <route edges="edgeL-1_1-1 edgeL-1-1_2"/>
   </vehicle>
   <vehicle id="280c65bec803c5a4ecbde42b2e558a16_2" type="type1" depart="1483.0" color="1,1,0" departPos="78.2386956511" departSpeed="5.2" 				arrivalPos="0.883608457925">
      <route edges="edgeL-4-3 edgeL-3-2 edgeL-2-1 edgeL-1-1_1"/>
   </vehicle>
   <vehicle id="9e9385cd97c92c76a9fa1fe054bf7627_0" type="type1" depart="1483.0" color="1,1,0" departPos="73.4720115824" departSpeed="11.2" 				arrivalPos="27.9906787522">
      <route edges="edgeL-6_1-6 edgeL-6-6_0"/>
   </vehicle>
   <vehicle id="2b3e065c5b8dfd3b502783a7d989e419_0" type="type1" depart="1494.0" color="1,1,0" departPos="0.413401371342" departSpeed="2.1" 				arrivalPos="10.4134013713">
      <route edges="edgeL-2-1"/>
   </vehicle>
   <vehicle id="2c3336dc54d25100cb32e3a4cecadb5d_0" type="type1" depart="1508.0" color="1,1,0" departPos="176.325491081" departSpeed="15.5" 				arrivalPos="30.1868686434">
      <route edges="edgeL-7_1-7 edgeL-7-6 edgeL-6-6_0"/>
   </vehicle>
   <vehicle id="2c974ed99d80730b41779ec813498646_0" type="type1" depart="1538.0" color="1,1,0" departPos="145.952058419" departSpeed="16.7" 				arrivalPos="9.87602716416">
      <route edges="edgeL-7_1-7 edgeL-7-6 edgeL-6-5 edgeL-5-4 edgeL-4-3 edgeL-3-2 edgeL-2-1 edgeL-1-1_1"/>
   </vehicle>
   <vehicle id="255398584cd89def12a897ddd2c3b53d_0" type="type1" depart="1539.0" color="1,1,0" departPos="2.19773830884" departSpeed="4.8" 				arrivalPos="13.5229911127">
      <route edges="edgeL-4-3 edgeL-3-3_0"/>
   </vehicle>
   <vehicle id="7d21a4d8c82220b953a183ef7183afc7_0" type="type1" depart="1542.0" color="1,1,0" departPos="45.2215783584" departSpeed="11.1" 				arrivalPos="52.3114803077">
      <route edges="edgeL-6-7 edgeL-7-7_1"/>
   </vehicle>
   <vehicle id="8bd32c860dbec528687cd7ef5566966d_0" type="type1" depart="1550.0" color="1,1,0" departPos="154.006721377" departSpeed="11.9" 				arrivalPos="34.4625181499">
      <route edges="edgeL-7_1-7 edgeL-7-6"/>
   </vehicle>
   <vehicle id="1666e2c4ba2ad1e3bdb1e1118cde1dbe_0" type="type1" depart="1570.0" color="1,1,0" departPos="180.789245821" departSpeed="18.0" 				arrivalPos="-1.78454446039">
      <route edges="edgeL-7_1-7 edgeL-7-6 edgeL-6-5 edgeL-5-4 edgeL-4-3 edgeL-3-2 edgeL-2-1 edgeL-1-1_1"/>
   </vehicle>
   <vehicle id="1701e984773fd8570503ec6b94f900eb_0" type="type1" depart="1595.0" color="1,1,0" departPos="182.029212949" departSpeed="0.0" 				arrivalPos="12.245126386">
      <route edges="edgeL-5-4 edgeL-4-3"/>
   </vehicle>
   <vehicle id="3673a323438617ea3579ecf695052fa4_0" type="type1" depart="1601.0" color="1,1,0" departPos="602.232145209" departSpeed="9.9" 				arrivalPos="14.026599486">
      <route edges="edgeL-7-6 edgeL-6-5 edgeL-5-4 edgeL-4-3 edgeL-3-2 edgeL-2-1 edgeL-1-1_2"/>
   </vehicle>
   <vehicle id="7b571b0cf617ab6c9df21c2525ed28ec_1" type="type1" depart="1642.0" color="1,1,0" departPos="47.9000185339" departSpeed="8.0" 				arrivalPos="58.5607353449">
      <route edges="edgeL-6-7 edgeL-7-7_1"/>
   </vehicle>
   <vehicle id="725bf8da596a82365c5fa0b8d83cccb9_0" type="type1" depart="1652.0" color="1,1,0" departPos="57.407920332" departSpeed="11.8" 				arrivalPos="5.96577238617">
      <route edges="edgeL-6_1-6 edgeL-6-6_0"/>
   </vehicle>
   <vehicle id="901b1652e549927fbbb3912f21300eee_0" type="type1" depart="1665.0" color="1,1,0" departPos="51.4712714346" departSpeed="8.6" 				arrivalPos="64.8099913818">
      <route edges="edgeL-6-7 edgeL-7-7_1"/>
   </vehicle>
   <vehicle id="38dc9fb42c401b23121d2e793f57d0da_0" type="type1" depart="1667.0" color="1,1,0" departPos="81.504050506" departSpeed="11.4" 				arrivalPos="27.9906787522">
      <route edges="edgeL-6_1-6 edgeL-6-6_0"/>
   </vehicle>
   <vehicle id="873c6bb8185c71937d94043904e7008f_0" type="type1" depart="1674.0" color="1,1,0" departPos="763.846286335" departSpeed="6.0" 				arrivalPos="31.8513866795">
      <route edges="edgeL-7-6 edgeL-6-5 edgeL-5-4"/>
   </vehicle>
   <vehicle id="fdc48916392dce85dfdac94792cdf735_0" type="type1" depart="1679.0" color="1,1,0" departPos="9.42706343887" departSpeed="7.2" 				arrivalPos="2.66237673811">
      <route edges="edgeL-4-3 edgeL-3-2 edgeL-2-1 edgeL-1-1_1"/>
   </vehicle>
   <vehicle id="4cdf13a69320ccfd80f60012f7c5e4e1_0" type="type1" depart="1689.0" color="1,1,0" departPos="39.5429721276" departSpeed="9.3" 				arrivalPos="15.6225286982">
      <route edges="edgeL-7_0-7 edgeL-7-7_2"/>
   </vehicle>
   <vehicle id="833decca4f5ebeb778a04170c08f96d1_0" type="type1" depart="1719.0" color="1,1,0" departPos="46.5985695063" departSpeed="10.0" 				arrivalPos="7.09470153196">
      <route edges="edgeL-4_0-4 edgeL-4-4_1"/>
   </vehicle>
   <vehicle id="86a6d87a193e2159d6da94ca9d6cc351_0" type="type1" depart="1759.0" color="1,1,0" departPos="438.787609058" departSpeed="10.8" 				arrivalPos="27.3894446114">
      <route edges="edgeL-7-6 edgeL-6-5 edgeL-5-4"/>
   </vehicle>
   <vehicle id="83c052b1a28bc63a22d6f9af7076e37b_0" type="type1" depart="1779.0" color="1,1,0" departPos="226.462373839" departSpeed="8.1" 				arrivalPos="-4.88723720852">