<routes>
   <vType id="type1" accel="0.8" decel="4.5" sigma="0.5" length="5" maxSpeed="70"/>
   <vehicle id="c243b97c579b441827b59ade5f9c5c3b_0" type="type1" depart="0.0" color="1,1,0" departPos="571.975049982" departSpeed="9.2" 			arrivalPos="317.556399548">
      <route edges="edgeL-1-2 edgeL-2-3"/>
   </vehicle>
   <vehicle id="f9643897f57a000c2facc2fe39de8947_2" type="type1" depart="7.0" color="1,1,0" departPos="54.5616836584" departSpeed="8.7" 			arrivalPos="9.58699956118">
      <route edges="edgeL-4-3 edgeL-3-2"/>
   </vehicle>
   <vehicle id="b30d752005d4392f8b4bfbdee2d54710_0" type="type1" depart="10.0" color="1,1,0" departPos="69.8623765964" departSpeed="16.5" 			arrivalPos="16.1585619127">
      <route edges="edgeL-6_1-6 edgeL-6-5"/>
   </vehicle>
   <vehicle id="03105e580fe53482e2a4b85def9d7a0a_0" type="type1" depart="29.0" color="1,1,0" departPos="183.261792268" departSpeed="15.8" 			arrivalPos="42.4184435177">
      <route edges="edgeL-7_1-7 edgeL-7-6"/>
   </vehicle>
   <vehicle id="c00a55ffd526f9bacbb3529888531af5_6" type="type1" depart="35.0" color="1,1,0" departPos="121.62829067" departSpeed="5.6" 			arrivalPos="33.4903023491">
      <route edges="edgeL-7_0-7 edgeL-7-6"/>
   </vehicle>
   <vehicle id="f9643897f57a000c2facc2fe39de8947_1" type="type1" depart="43.0" color="1,1,0" departPos="50.1491517411" departSpeed="13.4" 			arrivalPos="5.74531910603">
      <route edges="edgeL-3-2 edgeL-2-1"/>
   </vehicle>
   <vehicle id="ccb96aad4d317f06f0635034c5fd7a24_0" type="type1" depart="46.0" color="1,1,0" departPos="6.72072593484" departSpeed="11.9" 			arrivalPos="123.052320976">
      <route edges="edgeL-7-6 edgeL-6-5"/>
   </vehicle>
   <vehicle id="7e7c25369cbe90a226886a17a2d0cde0_0" type="type1" depart="63.0" color="1,1,0" departPos="434.785436371" departSpeed="8.2" 			arrivalPos="577.43848302">
      <route edges="edgeL-1-2"/>
   </vehicle>
   <vehicle id="44059ba1faca1e97e9c6483a53c949ea_0" type="type1" depart="89.0" color="1,1,0" departPos="78.5981531555" departSpeed="10.8" 			arrivalPos="5.02750874455">
      <route edges="edgeL-6_0-6 edgeL-6-5"/>
   </vehicle>
   <vehicle id="e8fd86a18047027718c43ee21f41f813_0" type="type1" depart="104.0" color="1,1,0" departPos="15.7848536636" departSpeed="9.8" 			arrivalPos="28.9221242277">
      <route edges="edgeL-6-7 edgeL-7-7_2"/>
   </vehicle>
   <vehicle id="e526ed375bc779c447fb1b4d77c5dcc6_0" type="type1" depart="112.0" color="1,1,0" departPos="47.1572332435" departSpeed="10.4" 			arrivalPos="468.279953501">
      <route edges="edgeL-4_0-4"/>
   </vehicle>
   <vehicle id="4d5b41878ac4c91f9b9ffe2cf99ab0c7_5" type="type1" depart="120.0" color="1,1,0" departPos="613.938294057" departSpeed="17.4" 			arrivalPos="45.3644898784">
      <route edges="edgeL-7-6 edgeL-6-5"/>
   </vehicle>
   <vehicle id="e99fc29d026d5d48bc71d9ebed62d4c9_0" type="type1" depart="123.0" color="1,1,0" departPos="5.07108446115" departSpeed="9.9" 			arrivalPos="76.0926900117">
      <route edges="edgeL-6-7 edgeL-7-7_1"/>
   </vehicle>
   <vehicle id="e63dc248f75959e003824cce56e9b138_3" type="type1" depart="124.0" color="1,1,0" departPos="21.5255129472" departSpeed="13.4" 			arrivalPos="14.7112298751">
      <route edges="edgeL-5-4 edgeL-4-3"/>
   </vehicle>
   <vehicle id="91e1720e5be7f8de0f348ccd0e507abb_0" type="type1" depart="125.0" color="1,1,0" departPos="0.101913827058" departSpeed="14.0" 			arrivalPos="33.7567653498">
      <route edges="edgeL-5-4 edgeL-4-3"/>
   </vehicle>
   <vehicle id="176f2f10ad096856d983fdc915fde457_0" type="type1" depart="129.0" color="1,1,0" departPos="37.2368907424" departSpeed="13.7" 			arrivalPos="76.0926900117">
      <route edges="edgeL-5-6 edgeL-6-7 edgeL-7-7_1"/>
   </vehicle>
   <vehicle id="7f8aebf3c57b10678dfc08f7312345a9_0" type="type1" depart="133.0" color="1,1,0" departPos="7.77808099044" departSpeed="15.8" 			arrivalPos="77.8778212138">
      <route edges="edgeL-5-6 edgeL-6-7 edgeL-7-7_1"/>
   </vehicle>
   <vehicle id="2eb9f459764d7dea62a7c28cdc7cc6c0_3" type="type1" depart="141.0" color="1,1,0" departPos="10.8137133872" departSpeed="10.1" 			arrivalPos="19.1096845608">
      <route edges="edgeL-5-4 edgeL-4-3"/>
   </vehicle>
   <vehicle id="f9643897f57a000c2facc2fe39de8947_0" type="type1" depart="148.0" color="1,1,0" departPos="5.74531910603" departSpeed="7.0" 			arrivalPos="543.908973222">
      <route edges="edgeL-2-1"/>
   </vehicle>
   <vehicle id="c00a55ffd526f9bacbb3529888531af5_5" type="type1" depart="149.0" color="1,1,0" departPos="71.8813105743" departSpeed="12.8" 			arrivalPos="34.6521950595">
      <route edges="edgeL-7-6 edgeL-6-5"/>
   </vehicle>
   <vehicle id="bc65a289109cefd38f0ae418b0dee472_0" type="type1" depart="190.0" color="1,1,0" departPos="14.8553583978" departSpeed="7.8" 			arrivalPos="716.105556168">
      <route edges="edgeL-4-5"/>
   </vehicle>
   <vehicle id="7436e017ad50126b1fe4d813a7997d25_1" type="type1" depart="192.0" color="1,1,0" departPos="2.96261353416" departSpeed="0.0" 			arrivalPos="457.356071031">
      <route edges="edgeL-1-2"/>
   </vehicle>
   <vehicle id="53eb013571ecc9e0fb25358257d0603e_0" type="type1" depart="196.0" color="1,1,0" departPos="298.880466776" departSpeed="18.9" 			arrivalPos="11.2480668195">
      <route edges="edgeL-1_1-1 edgeL-1-2 edgeL-2-3 edgeL-3-3_1"/>
   </vehicle>
   <vehicle id="6d2424625ed54919eaf59567f7bae5ff_0" type="type1" depart="200.0" color="1,1,0" departPos="191.36410238" departSpeed="21.0" 			arrivalPos="330.247873081">
      <route edges="edgeL-1_1-1 edgeL-1-2 edgeL-2-3"/>
   </vehicle>
   <vehicle id="e63dc248f75959e003824cce56e9b138_2" type="type1" depart="206.0" color="1,1,0" departPos="44.5037325744" departSpeed="10.0" 			arrivalPos="22.9995102015">
      <route edges="edgeL-4-3 edgeL-3-2"/>
   </vehicle>
   <vehicle id="2eb9f459764d7dea62a7c28cdc7cc6c0_2" type="type1" depart="216.0" color="1,1,0" departPos="40.9849692199" departSpeed="7.2" 			arrivalPos="25.8118601478">
      <route edges="edgeL-4-3 edgeL-3-2"/>
   </vehicle>
   <vehicle id="e352840c7839670d64cb982922d7ca08_0" type="type1" depart="232.0" color="1,1,0" departPos="72.716070824" departSpeed="6.1" 			arrivalPos="29.1770664165">
      <route edges="edgeL-6_1-6 edgeL-6-7"/>
   </vehicle>
   <vehicle id="e63dc248f75959e003824cce56e9b138_1" type="type1" depart="245.0" color="1,1,0" departPos="54.5658855068" departSpeed="10.5" 			arrivalPos="11.9256513312">
      <route edges="edgeL-3-2 edgeL-2-1"/>
   </vehicle>
   <vehicle id="dddd65929d991217d922f43fab77feb5_1" type="type1" depart="249.0" color="1,1,0" departPos="145.144225288" departSpeed="12.6" 			arrivalPos="13.5028959602">
      <route edges="edgeL-4_0-4 edgeL-4-4_1"/>
   </vehicle>
   <vehicle id="7e7c25369cbe90a226886a17a2d0cde0_1" type="type1" depart="255.0" color="1,1,0" departPos="202.666867074" departSpeed="5.8" 			arrivalPos="25.5931570392">
      <route edges="edgeL-3-4 edgeL-4-5"/>
   </vehicle>
   <vehicle id="2eb9f459764d7dea62a7c28cdc7cc6c0_1" type="type1" depart="255.0" color="1,1,0" departPos="59.1449297508" departSpeed="11.2" 			arrivalPos="34.3302785575">
      <route edges="edgeL-3-2 edgeL-2-1"/>
   </vehicle>
   <vehicle id="0ac5e978a4ea24ca6f59abd965a4b0a7_3" type="type1" depart="278.0" color="1,1,0" departPos="58.9601383441" departSpeed="8.4" 			arrivalPos="10.4703457207">
      <route edges="edgeL-4-3 edgeL-3-2"/>
   </vehicle>
   <vehicle id="4d5b41878ac4c91f9b9ffe2cf99ab0c7_4" type="type1" depart="280.0" color="1,1,0" departPos="81.0721376081" departSpeed="8.9" 			arrivalPos="879.303950327">
      <route edges="edgeL-6-5"/>
   </vehicle>
   <vehicle id="e567111d6161f8e3712e5b7c53e50809_0" type="type1" depart="282.0" color="1,1,0" departPos="8.64234052866" departSpeed="12.5" 			arrivalPos="60.9190722949">
      <route edges="edgeL-6-7 edgeL-7-7_1"/>
   </vehicle>
   <vehicle id="c00a55ffd526f9bacbb3529888531af5_4" type="type1" depart="293.0" color="1,1,0" departPos="61.4329311068" departSpeed="8.9" 			arrivalPos="893.610706102">
      <route edges="edgeL-6-5"/>
   </vehicle>
   <vehicle id="b8383b7cca4b0df9b0bdeb98ada1b867_0" type="type1" depart="296.0" color="1,1,0" departPos="27.3914383828" departSpeed="11.4" 			arrivalPos="51.9934152848">
      <route edges="edgeL-6-7 edgeL-7-7_1"/>
   </vehicle>
   <vehicle id="e63dc248f75959e003824cce56e9b138_0" type="type1" depart="347.0" color="1,1,0" departPos="11.9256513312" departSpeed="9.0" 			arrivalPos="15.1689231797">
      <route edges="edgeL-2-1 edgeL-1-1_1"/>
   </vehicle>
   <vehicle id="7b571b0cf617ab6c9df21c2525ed28ec_1" type="type1" depart="348.0" color="1,1,0" departPos="608.581408956" departSpeed="15.6" 			arrivalPos="771.981247647">
      <route edges="edgeL-7-6"/>
   </vehicle>
   <vehicle id="f4dc8fe9460f2d60b86fcbff321ad235_0" type="type1" depart="351.0" color="1,1,0" departPos="596.974825237" departSpeed="9.8" 			arrivalPos="768.40999158">
      <route edges="edgeL-7-6"/>
   </vehicle>
   <vehicle id="2eb9f459764d7dea62a7c28cdc7cc6c0_0" type="type1" depart="351.0" color="1,1,0" departPos="34.3302785575" departSpeed="13.0" 			arrivalPos="576.357570478">
      <route edges="edgeL-2-1"/>
   </vehicle>
   <vehicle id="4d5b41878ac4c91f9b9ffe2cf99ab0c7_3" type="type1" depart="352.0" color="1,1,0" departPos="16.1696131672" departSpeed="9.0" 			arrivalPos="28.2879451274">
      <route edges="edgeL-5-4 edgeL-4-3"/>
   </vehicle>
   <vehicle id="c00a55ffd526f9bacbb3529888531af5_3" type="type1" depart="368.0" color="1,1,0" departPos="2.77986371708" departSpeed="10.7" 			arrivalPos="1.13451560792">
      <route edges="edgeL-5-4 edgeL-4-3"/>
   </vehicle>
   <vehicle id="0ac5e978a4ea24ca6f59abd965a4b0a7_2" type="type1" depart="377.0" color="1,1,0" departPos="44.6867613375" departSpeed="11.4" 			arrivalPos="11.0427464451">
      <route edges="edgeL-3-2 edgeL-2-1"/>
   </vehicle>
   <vehicle id="0eae62119cd844bf50dbdd4da250ef8a_0" type="type1" depart="381.0" color="1,1,0" departPos="60.4945608398" departSpeed="12.6" 			arrivalPos="3.45710907357">
      <route edges="edgeL-4_0-4 edgeL-4-4_1"/>
   </vehicle>
   <vehicle id="0ac5e978a4ea24ca6f59abd965a4b0a7_1" type="type1" depart="410.0" color="1,1,0" departPos="48.788764775" departSpeed="12.6" 			arrivalPos="575.474665591">
      <route edges="edgeL-2-1"/>
   </vehicle>
   <vehicle id="2661785e4fbcbf988f28df831de8c419_0" type="type1" depart="413.0" color="1,1,0" departPos="72.716070824" departSpeed="12.1" 			arrivalPos="22.7391533137">
      <route edges="edgeL-6_1-6 edgeL-6-5"/>
   </vehicle>
   <vehicle id="6b79cda4b9ab8ae25344b873ae6869b8_0" type="type1" depart="419.0" color="1,1,0" departPos="85.3118627708" departSpeed="10.6" 			arrivalPos="82.3406507185">
      <route edges="edgeL-6_1-6 edgeL-6-7 edgeL-7-7_1"/>
   </vehicle>
   <vehicle id="6d2424625ed54919eaf59567f7bae5ff_1" type="type1" depart="425.0" color="1,1,0" departPos="0.0864932459846" departSpeed="0.0" 			arrivalPos="37.2236069536">
      <route edges="edgeL-3-4 edgeL-4-5"/>
   </vehicle>
   <vehicle id="aeca1ce037957ebedcc332160277ceb0_3" type="type1" depart="426.0" color="1,1,0" departPos="288.531842863" departSpeed="15.8" 			arrivalPos="21.0597424139">
      <route edges="edgeL-5-4 edgeL-4-3"/>
   </vehicle>
   <vehicle id="a0ee0b29d9adce47cf68a20a452bd3a2_1" type="type1" depart="431.0" color="1,1,0" departPos="251.096787944" departSpeed="15.8" 			arrivalPos="42.4184435177">
      <route edges="edgeL-7_1-7 edgeL-7-6"/>
   </vehicle>
   <vehicle id="9ecd7ebc515b7cc6c0e244d597f4e39e_5" type="type1" depart="436.0" color="1,1,0" departPos="252.881919146" departSpeed="14.3" 			arrivalPos="40.632815484">
      <route edges="edgeL-7_1-7 edgeL-7-6"/>
   </vehicle>
   <vehicle id="4d5b41878ac4c91f9b9ffe2cf99ab0c7_2" type="type1" depart="436.0" color="1,1,0" departPos="49.0928624508" departSpeed="6.9" 			arrivalPos="15.7704266354">
      <route edges="edgeL-4-3 edgeL-3-2"/>
   </vehicle>
   <vehicle id="1ee9e8e8983cbbf1d95e8f8dd36bfd6a_0" type="type1" depart="441.0" color="1,1,0" departPos="28.2842518997" departSpeed="10.4" 			arrivalPos="60.9190722949">
      <route edges="edgeL-6-7 edgeL-7-7_1"/>
   </vehicle>
   <vehicle id="6cc8828499db9f4e1b1a824f0020aff7_2" type="type1" depart="468.0" color="1,1,0" departPos="63.5492683918" departSpeed="8.7" 			arrivalPos="39.2243719233">
      <route edges="edgeL-4-3 edgeL-3-2"/>
   </vehicle>
   <vehicle id="280c65bec803c5a4ecbde42b2e558a16_1" type="type1" depart="469.0" color="1,1,0" departPos="370.71483119" departSpeed="8.4" 			arrivalPos="326.714485474">
      <route edges="edgeL-1_1-1 edgeL-1-2 edgeL-2-3"/>
   </vehicle>
   <vehicle id="4d5b41878ac4c91f9b9ffe2cf99ab0c7_1" type="type1" depart="469.0" color="1,1,0" departPos="57.3782354531" departSpeed="13.8" 			arrivalPos="15.6232758844">
      <route edges="edgeL-3-2 edgeL-2-1"/>
   </vehicle>
   <vehicle id="9ecd7ebc515b7cc6c0e244d597f4e39e_4" type="type1" depart="475.0" color="1,1,0" departPos="90.6304074284" departSpeed="16.4" 			arrivalPos="40.0083424689">
      <route edges="edgeL-7-6 edgeL-6-5"/>
   </vehicle>
   <vehicle id="a0ee0b29d9adce47cf68a20a452bd3a2_0" type="type1" depart="476.0" color="1,1,0" departPos="42.4184435177" departSpeed="14.6" 			arrivalPos="53.3987099927">
      <route edges="edgeL-7-6 edgeL-6-5"/>
   </vehicle>
   <vehicle id="9b2fb57d3a8c6b893d3a275693520fb1_1" type="type1" depart="490.0" color="1,1,0" departPos="277.011351851" departSpeed="10.3" 			arrivalPos="45.0968860683">
      <route edges="edgeL-7_1-7 edgeL-7-6"/>
   </vehicle>
   <vehicle id="bbd98f39748bec99c0432c0ec742ed1c_0" type="type1" depart="532.0" color="1,1,0" departPos="7.54314446503" departSpeed="9.9" 			arrivalPos="325.668830118">
      <route edges="edgeL-1-2 edgeL-2-3"/>
   </vehicle>
   <vehicle id="fb92473c31e329170f257cbb563317c8_0" type="type1" depart="565.0" color="1,1,0" departPos="317.752274936" departSpeed="0.0" 			arrivalPos="573.023960568">
      <route edges="edgeL-1_1-1 edgeL-1-2"/>
   </vehicle>
   <vehicle id="4d5b41878ac4c91f9b9ffe2cf99ab0c7_0" type="type1" depart="565.0" color="1,1,0" departPos="15.6232758844" departSpeed="13.4" 			arrivalPos="562.781985025">
      <route edges="edgeL-2-1"/>
   </vehicle>
   <vehicle id="c00a55ffd526f9bacbb3529888531af5_2" type="type1" depart="572.0" color="1,1,0" departPos="41.8646595659" departSpeed="13.5" 			arrivalPos="14.0037333269">
      <route edges="edgeL-4-3 edgeL-3-2"/>
   </vehicle>
   <vehicle id="6cc8828499db9f4e1b1a824f0020aff7_1" type="type1" depart="576.0" color="1,1,0" departPos="73.4407876859" departSpeed="11.5" 			arrivalPos="22.6865120069">
      <route edges="edgeL-3-2 edgeL-2-1"/>
   </vehicle>
   <vehicle id="1a457aad55a008c78911afd759c8bf88_0" type="type1" depart="578.0" color="1,1,0" departPos="288.318237876" departSpeed="13.1" 			arrivalPos="732.173254508">
      <route edges="edgeL-4-5"/>
   </vehicle>
   <vehicle id="04469f43c300e655e4349c8870d18db8_0" type="type1" depart="590.0" color="1,1,0" departPos="95.8938515576" departSpeed="2.3" 			arrivalPos="30.8118597985">
      <route edges="edgeL-7_0-7 edgeL-7-6"/>
   </vehicle>
   <vehicle id="242c6a525355b66794a75277369fe975_0" type="type1" depart="595.0" color="1,1,0" departPos="192.187449278" departSpeed="16.4" 			arrivalPos="26.3477882142">
      <route edges="edgeL-7_1-7 edgeL-7-6"/>
   </vehicle>
   <vehicle id="ed539a26b701cb39181be2c093ef417c_0" type="type1" depart="598.0" color="1,1,0" departPos="91.0192449774" departSpeed="7.7" 			arrivalPos="20.8826803222">
      <route edges="edgeL-6_1-6 edgeL-6-5"/>
   </vehicle>
   <vehicle id="aeca1ce037957ebedcc332160277ceb0_2" type="type1" depart="600.0" color="1,1,0" departPos="40.9849692199" departSpeed="6.6" 			arrivalPos="12.2370390292">
      <route edges="edgeL-4-3 edgeL-3-2"/>
   </vehicle>
   <vehicle id="6cc8828499db9f4e1b1a824f0020aff7_0" type="type1" depart="603.0" color="1,1,0" departPos="22.6865120069" departSpeed="12.3" 			arrivalPos="569.128325728">
      <route edges="edgeL-2-1"/>
   </vehicle>
   <vehicle id="c00a55ffd526f9bacbb3529888531af5_1" type="type1" depart="608.0" color="1,1,0" departPos="51.03249889" departSpeed="12.2" 			arrivalPos="23.569416893">
      <route edges="edgeL-3-2 edgeL-2-1"/>
   </vehicle>
   <vehicle id="510a9be7acfa3d8ec8e19737bef93d91_0" type="type1" depart="619.0" color="1,1,0" departPos="168.088174551" departSpeed="13.4" 			arrivalPos="597.532925045">
      <route edges="edgeL-7_1-7"/>
   </vehicle>
   <vehicle id="9b2fb57d3a8c6b893d3a275693520fb1_0" type="type1" depart="631.0" color="1,1,0" departPos="11.1699484275" departSpeed="9.8" 			arrivalPos="52.5060194243">
      <route edges="edgeL-7-6 edgeL-6-5"/>
   </vehicle>
   <vehicle id="aeca1ce037957ebedcc332160277ceb0_1" type="type1" depart="636.0" color="1,1,0" departPos="65.328356825" departSpeed="17.8" 			arrivalPos="19.15489444">
      <route edges="edgeL-3-2 edgeL-2-1"/>
   </vehicle>
   <vehicle id="c00a55ffd526f9bacbb3529888531af5_0" type="type1" depart="641.0" color="1,1,0" departPos="23.569416893" departSpeed="13.0" 			arrivalPos="566.313603581">
      <route edges="edgeL-2-1"/>
   </vehicle>
   <vehicle id="1ec1462d9c0013ee6f31565214f3947c_0" type="type1" depart="649.0" color="1,1,0" departPos="210.141836701" departSpeed="20.0" 			arrivalPos="321.252096352">
      <route edges="edgeL-1_1-1 edgeL-1-2 edgeL-2-3"/>
   </vehicle>
   <vehicle id="f61da62a424e29965c44750b1db22074_0" type="type1" depart="652.0" color="1,1,0" departPos="365.90493439" departSpeed="5.2" 			arrivalPos="432.579254058">
      <route edges="edgeL-7_2-7"/>
   </vehicle>
   <vehicle id="a27693d8d46a4754c879f047651cd8c0_0" type="type1" depart="659.0" color="1,1,0" departPos="18.4519576657" departSpeed="6.9" 			arrivalPos="732.173254508">
      <route edges="edgeL-4-5"/>
   </vehicle>
   <vehicle id="ce984d512179cddec4fbf813c90af4a4_0" type="type1" depart="663.0" color="1,1,0" departPos="22.9273667985" departSpeed="13.7" 			arrivalPos="71.6298615067">
      <route edges="edgeL-6-7 edgeL-7-7_1"/>
   </vehicle>
   <vehicle id="aeca1ce037957ebedcc332160277ceb0_0" type="type1" depart="664.0" color="1,1,0" departPos="19.15489444" departSpeed="14.6" 			arrivalPos="0.745607111802">
      <route edges="edgeL-2-1 edgeL-1-1_1"/>
   </vehicle>
   <vehicle id="bbb39f530b95cebe61e2a9a1bcc176fe_0" type="type1" depart="672.0" color="1,1,0" departPos="66.3111201607" departSpeed="9.4" 			arrivalPos="9.70423447084">
      <route edges="edgeL-6_0-6 edgeL-6-5"/>
   </vehicle>
   <vehicle id="9ecd7ebc515b7cc6c0e244d597f4e39e_3" type="type1" depart="679.0" color="1,1,0" departPos="68.5744606527" departSpeed="9.5" 			arrivalPos="875.733186054">
      <route edges="edgeL-6-5"/>
   </vehicle>
   <vehicle id="ae5a7c006b36b0004ea1f1d39e1fce0b_0" type="type1" depart="683.0" color="1,1,0" departPos="0.101913827058" departSpeed="8.6" 			arrivalPos="34.6364566811">
      <route edges="edgeL-5-4 edgeL-4-3"/>
   </vehicle>
   <vehicle id="aa7e63bdf16501879896047ac16ec9dc_1" type="type1" depart="713.0" color="1,1,0" departPos="86.9464307978" departSpeed="7.9" 			arrivalPos="25.4549746973">
      <route edges="edgeL-7_0-7 edgeL-7-6"/>
   </vehicle>
   <vehicle id="9ecd7ebc515b7cc6c0e244d597f4e39e_2" type="type1" depart="751.0" color="1,1,0" departPos="17.0622634638" departSpeed="8.3" 			arrivalPos="23.6988144372">
      <route edges="edgeL-5-4 edgeL-4-3"/>
   </vehicle>
   <vehicle id="68af7da294597f93712ff5414d376587_0" type="type1" depart="762.0" color="1,1,0" departPos="273.780771873" departSpeed="0.0" 			arrivalPos="327.597832623">
      <route edges="edgeL-1_1-1 edgeL-1-2 edgeL-2-3"/>
   </vehicle>
   <vehicle id="b2e4ff1861b3ebb07dd531ae9e2be5ca_2" type="type1" depart="789.0" color="1,1,0" departPos="149.651600697" departSpeed="12.4" 			arrivalPos="19.942596517">
      <route edges="edgeL-6_1-6 edgeL-6-5"/>
   </vehicle>
   <vehicle id="3520a17f02da037efd17a108b2ea4933_0" type="type1" depart="801.0" color="1,1,0" departPos="136.064705099" departSpeed="4.9" 			arrivalPos="379.740751572">
      <route edges="edgeL-1_0-1"/>
   </vehicle>
   <vehicle id="c3c7ccc233e76a8de37f54148ba21d38_0" type="type1" depart="813.0" color="1,1,0" departPos="5.07108446115" departSpeed="8.3" 			arrivalPos="61.8116383958">
      <route edges="edgeL-6-7 edgeL-7-7_1"/>
   </vehicle>
   <vehicle id="a936cc04d64db72161612688268ba646_1" type="type1" depart="821.0" color="1,1,0" departPos="253.774485247" departSpeed="12.3" 			arrivalPos="34.383115866">
      <route edges="edgeL-7_1-7 edgeL-7-6"/>
   </vehicle>
   <vehicle id="93423d9db26a67b71ffdba2fe8a15a10_0" type="type1" depart="850.0" color="1,1,0" departPos="8.64234052866" departSpeed="9.2" 			arrivalPos="52.8859813857">
      <route edges="edgeL-6-7 edgeL-7-7_1"/>
   </vehicle>
   <vehicle id="a936cc04d64db72161612688268ba646_0" type="type1" depart="863.0" color="1,1,0" departPos="1.36384183358" departSpeed="9.3" 			arrivalPos="53.3987099927">
      <route edges="edgeL-7-6 edgeL-6-5"/>
   </vehicle>
   <vehicle id="6161875ab1b319e649a986b1ca5e5b80_0" type="type1" depart="929.0" color="1,1,0" departPos="64.9852008665" departSpeed="10.8" 			arrivalPos="1.25118392586">
      <route edges="edgeL-4_0-4 edgeL-4-4_1"/>
   </vehicle>
   <vehicle id="86448f28da65f04d7f2e43f26e3b0ce2_2" type="type1" depart="929.0" color="1,1,0" departPos="146.768943382" departSpeed="9.3" 			arrivalPos="16.8160831273">
      <route edges="edgeL-4-3 edgeL-3-2"/>
   </vehicle>
   <vehicle id="4bf0c2e6e0230eac523635482dbb68e0_0" type="type1" depart="960.0" color="1,1,0" departPos="107.59667089" departSpeed="5.6" 			arrivalPos="7.82406569033">
      <route edges="edgeL-6_0-6 edgeL-6-5"/>
   </vehicle>
   <vehicle id="197fdf7f63d567249b3d826100264ebf_0" type="type1" depart="971.0" color="1,1,0" departPos="94.2224421011" departSpeed="0.0" 			arrivalPos="10.596926039">
      <route edges="edgeL-6_0-6 edgeL-6-5"/>
   </vehicle>
   <vehicle id="7436e017ad50126b1fe4d813a7997d25_2" type="type1" depart="971.0" color="1,1,0" departPos="46.2631142517" departSpeed="7.5" 			arrivalPos="335.581929851">
      <route edges="edgeL-4-3"/>
   </vehicle>
   <vehicle id="b59054c333b1cf1afce4406ab25f7569_0" type="type1" depart="981.0" color="1,1,0" departPos="32.7734349011" departSpeed="13.4" 			arrivalPos="65.3819007999">
      <route edges="edgeL-5-6 edgeL-6-7 edgeL-7-7_1"/>
   </vehicle>
   <vehicle id="a27693d8d46a4754c879f047651cd8c0_1" type="type1" depart="986.0" color="1,1,0" departPos="676.451185903" departSpeed="2.9" 			arrivalPos="55.563677689">
      <route edges="edgeL-5-6 edgeL-6-7 edgeL-7-7_1"/>
   </vehicle>
   <vehicle id="f47819a549c67dd9ceacfda9d6725d70_2" type="type1" depart="994.0" color="1,1,0" departPos="227.890078318" departSpeed="14.0" 			arrivalPos="43.3112570347">
      <route edges="edgeL-7_1-7 edgeL-7-6"/>
   </vehicle>
   <vehicle id="9ecd7ebc515b7cc6c0e244d597f4e39e_1" type="type1" depart="998.0" color="1,1,0" departPos="47.3334807735" departSpeed="8.0" 			arrivalPos="21.2328168931">
      <route edges="edgeL-4-3 edgeL-3-2"/>
   </vehicle>
   <vehicle id="c5725096d2340b7ebebcf5fb889b9a89_0" type="type1" depart="1002.0" color="1,1,0" departPos="402.030870948" departSpeed="9.2" 			arrivalPos="599.318057246">
      <route edges="edgeL-7_1-7"/>
   </vehicle>
   <vehicle id="fb92473c31e329170f257cbb563317c8_1" type="type1" depart="1005.0" color="1,1,0" departPos="172.874363347" departSpeed="2.7" 			arrivalPos="727.710005025">
      <route edges="edgeL-3-4 edgeL-4-5"/>
   </vehicle>
   <vehicle id="4a5770aad6b2170975323aea0b50a3e0_0" type="type1" depart="1006.0" color="1,1,0" departPos="91.9976157773" departSpeed="3.8" 			arrivalPos="12.4533982011">
      <route edges="edgeL-6_0-6 edgeL-6-5"/>
   </vehicle>
   <vehicle id="86448f28da65f04d7f2e43f26e3b0ce2_1" type="type1" depart="1010.0" color="1,1,0" departPos="50.1491517411" departSpeed="11.1" 			arrivalPos="9.27693766169">
      <route edges="edgeL-3-2 edgeL-2-1"/>
   </vehicle>
   <vehicle id="9ecd7ebc515b7cc6c0e244d597f4e39e_0" type="type1" depart="1028.0" color="1,1,0" departPos="21.2328168931" departSpeed="10.2" 			arrivalPos="43.4913374359">
      <route edges="edgeL-3-2 edgeL-2-1"/>
   </vehicle>
   <vehicle id="2661785e4fbcbf988f28df831de8c419_1" type="type1" depart="1041.0" color="1,1,0" departPos="116.546512851" departSpeed="5.2" 			arrivalPos="12.4533982011">
      <route edges="edgeL-6_0-6 edgeL-6-5"/>
   </vehicle>
   <vehicle id="86448f28da65f04d7f2e43f26e3b0ce2_0" type="type1" depart="1046.0" color="1,1,0" departPos="9.27693766169" departSpeed="10.3" 			arrivalPos="6.0837953213">
      <route edges="edgeL-2-1 edgeL-1-1_1"/>
   </vehicle>
   <vehicle id="aa7e63bdf16501879896047ac16ec9dc_0" type="type1" depart="1063.0" color="1,1,0" departPos="55.0686764056" departSpeed="3.7" 			arrivalPos="76.0926900117">
      <route edges="edgeL-6-7 edgeL-7-7_1"/>
   </vehicle>
   <vehicle id="ae5a7c006b36b0004ea1f1d39e1fce0b_1" type="type1" depart="1064.0" color="1,1,0" departPos="34.0144825214" departSpeed="5.7" 			arrivalPos="4.12460930347">
      <route edges="edgeL-3_0-3 edgeL-3-2"/>
   </vehicle>
   <vehicle id="c72d51c6a3c55b666274b2329cdc5aa4_1" type="type1" depart="1065.0" color="1,1,0" departPos="88.6351189399" departSpeed="14.6" 			arrivalPos="10.6206227213">
      <route edges="edgeL-6_0-6 edgeL-6-5"/>
   </vehicle>
   <vehicle id="ccb96aad4d317f06f0635034c5fd7a24_3" type="type1" depart="1083.0" color="1,1,0" departPos="46.2631142517" departSpeed="5.7" 			arrivalPos="33.0409438598">
      <route edges="edgeL-4-3 edgeL-3-2"/>
   </vehicle>
   <vehicle id="87ccb5c75eca52179fe921f816b78bde_1" type="type1" depart="1115.0" color="1,1,0" departPos="363.846306694" departSpeed="7.1" 			arrivalPos="439.205504893">
      <route edges="edgeL-4_1-4"/>
   </vehicle>
   <vehicle id="52375bb5b35d4311eb099483f5b6737e_0" type="type1" depart="1120.0" color="1,1,0" departPos="249.570775335" departSpeed="11.2" 			arrivalPos="570.20924021">
      <route edges="edgeL-1_1-1 edgeL-1-2"/>
   </vehicle>
   <vehicle id="f3bc6bd1462edd25f7ae844143e8f65d_0" type="type1" depart="1120.0" color="1,1,0" departPos="64.7125442266" departSpeed="12.8" 			arrivalPos="18.9788151362">
      <route edges="edgeL-6_1-6 edgeL-6-5"/>
   </vehicle>
   <vehicle id="496cdcfaca59e961e251d568f5316165_2" type="type1" depart="1124.0" color="1,1,0" departPos="243.006695732" departSpeed="6.5" 			arrivalPos="14.7112298751">
      <route edges="edgeL-5-4 edgeL-4-3"/>
   </vehicle>
   <vehicle id="0adfc0613122c69a44c238c1b496b156_0" type="type1" depart="1161.0" color="1,1,0" departPos="313.303783266" departSpeed="0.0" 			arrivalPos="314.023012932">
      <route edges="edgeL-1_1-1 edgeL-1-2 edgeL-2-3"/>
   </vehicle>
   <vehicle id="68af7da294597f93712ff5414d376587_1" type="type1" depart="1161.0" color="1,1,0" departPos="327.597832623" departSpeed="5.1" 			arrivalPos="47.0687562982">
      <route edges="edgeL-2-3 edgeL-3-4 edgeL-4-5"/>
   </vehicle>
   <vehicle id="7436e017ad50126b1fe4d813a7997d25_0" type="type1" depart="1169.0" color="1,1,0" departPos="21.81319724" departSpeed="8.1" 			arrivalPos="47.0687562982">
      <route edges="edgeL-2-3 edgeL-3-4 edgeL-4-5"/>
   </vehicle>
   <vehicle id="ccb96aad4d317f06f0635034c5fd7a24_2" type="type1" depart="1188.0" color="1,1,0" departPos="73.4407876859" departSpeed="13.7" 			arrivalPos="7.51112887826">
      <route edges="edgeL-3-2 edgeL-2-1"/>
   </vehicle>
   <vehicle id="ccb96aad4d317f06f0635034c5fd7a24_1" type="type1" depart="1217.0" color="1,1,0" departPos="40.6766167801" departSpeed="11.3" 			arrivalPos="11.4669375935">
      <route edges="edgeL-2-1 edgeL-1-1_0"/>
   </vehicle>
   <vehicle id="e1b518d5a198d9ff01eb7b36b3c724ac_0" type="type1" depart="1226.0" color="1,1,0" departPos="286.330619367" departSpeed="18.3" 			arrivalPos="461.053695734">
      <route edges="edgeL-1_1-1 edgeL-1-2"/>
   </vehicle>
   <vehicle id="a439f43b2eff2cda428f0dcedf50fc4b_0" type="type1" depart="1233.0" color="1,1,0" departPos="16.6776681804" departSpeed="9.8" 			arrivalPos="60.9190722949">
      <route edges="edgeL-6-7 edgeL-7-7_1"/>
   </vehicle>
   <vehicle id="977133799d4c7f49b1806386915adb60_0" type="type1" depart="1235.0" color="1,1,0" departPos="310.634688663" departSpeed="16.1" 			arrivalPos="66.8109333231">
      <route edges="edgeL-1_1-1 edgeL-1-1_2"/>
   </vehicle>
   <vehicle id="6e46d480ea5245d85b6bc87cca6c7292_0" type="type1" depart="1236.0" color="1,1,0" departPos="96.5660258373" departSpeed="6.6" 			arrivalPos="189.463656934">
      <route edges="edgeL-3_1-3"/>
   </vehicle>
   <vehicle id="2be7c2e73198667e568222b84fd591b9_0" type="type1" depart="1258.0" color="1,1,0" departPos="364.793691485" departSpeed="5.3" 			arrivalPos="424.80060964">
      <route edges="edgeL-7_2-7"/>
   </vehicle>
   <vehicle id="f606314721f3484a563c6537859525db_0" type="type1" depart="1262.0" color="1,1,0" departPos="357.014986159" departSpeed="4.1" 			arrivalPos="422.578138808">
      <route edges="edgeL-7_2-7"/>
   </vehicle>
   <vehicle id="66e055033a638d395de45cc7e4b17615_0" type="type1" depart="1281.0" color="1,1,0" departPos="43.4017699447" departSpeed="5.6" 			arrivalPos="21.1434618374">
      <route edges="edgeL-7_0-7 edgeL-7-7_2"/>
   </vehicle>
   <vehicle id="ed39ca3d53a06df4d213a79d049d45ba_3" type="type1" depart="1307.0" color="1,1,0" departPos="25.0961121341" departSpeed="10.1" 			arrivalPos="24.5785057684">
      <route edges="edgeL-5-4 edgeL-4-3"/>
   </vehicle>
   <vehicle id="eb03b38db809195a446295b9bce18c1f_2" type="type1" depart="1310.0" color="1,1,0" departPos="265.37783956" departSpeed="14.0" 			arrivalPos="37.0615584166">
      <route edges="edgeL-7_1-7 edgeL-7-6"/>
   </vehicle>
   <vehicle id="4df1f537a04f809ad402d613c4f60ac7_0" type="type1" depart="1313.0" color="1,1,0" departPos="305.202427527" departSpeed="10.1" 			arrivalPos="301.331539254">
      <route edges="edgeL-1_1-1 edgeL-1-2 edgeL-2-3"/>
   </vehicle>
   <vehicle id="ed90d426fe7570650d97d135b35b8c93_1" type="type1" depart="1315.0" color="1,1,0" departPos="105.371841567" departSpeed="7.5" 			arrivalPos="5.94389695241">