<routes>
   <vType accel="0.8" decel="4.5" id="type1" length="1" maxSpeed="70" sigma="0.5" />
   <vehicle id="c243b97c579b441827b59ade5f9c5c3b_0" type="type1" depart="0.0" color="1,1,0" departPos="561.975049982" departSpeed="9.2" 				arrivalPos="307.556399548">
      <route edges="edgeL-1-2 edgeL-2-3"/>
   </vehicle>
</routes>