<nodes> 
<node id="node1" x="521677" y="58109" type="traffic_light"/> 
<node id="node2" x="521580" y="57466" type="traffic_light"/> 
<node id="node3" x="521520" y="57059" type="traffic_light"/> 
<node id="node4" x="521452" y="56668" type="traffic_light"/> 
<node id="node5" x="521433" y="55855" type="traffic_light"/> 
<node id="node6" x="521411" y="54822" type="traffic_light"/> 
<node id="node7" x="521400" y="53998" type="traffic_light"/> 
<node id="node1_2" x="521769" y="58107" type="priority"/>
<node id="node1_1" x="521729" y="58722" type="priority"/>
<node id="node1_0" x="521296" y="58295" type="priority"/>
<node id="node2_0" x="521542" y="57515" type="priority"/>
<node id="node3_0" x="521387" y="57093" type="priority"/>
<node id="node3_1" x="521732" y="57032" type="priority"/>
<node id="node4_0" x="520955" y="56693" type="priority"/>
<node id="node4_1" x="521920" y="56605" type="priority"/>
<node id="node5_0" x="521378" y="55918" type="priority"/>
<node id="node5_1" x="521660" y="55437" type="priority"/>
<node id="node6_0" x="520987" y="54810" type="priority"/>
<node id="node6_1" x="521780" y="55117" type="priority"/>
<node id="node7_0" x="521000" y="53960" type="priority"/>
<node id="node7_1" x="521417" y="53371" type="priority"/>
<node id="node7_2" x="521856" y="54023" type="priority"/>
</nodes> 