<nodes> 
<node id="node1" x="521676" y="58126" type="traffic_light"/> 
<node id="node2" x="521581" y="57500" type="traffic_light"/> 
<node id="node3" x="521516" y="57070" type="traffic_light"/> 
<node id="node4" x="521454" y="56672" type="traffic_light"/> 
<node id="node5" x="521427" y="55870" type="traffic_light"/> 
<node id="node6" x="521418" y="54881" type="traffic_light"/> 
<node id="node7" x="521406" y="53986" type="traffic_light"/> 
<node id="node1_2" x="521838" y="58093" type="priority"/>
<node id="node1_1" x="521729" y="58722" type="priority"/>
<node id="node1_0" x="521296" y="58295" type="priority"/>
<node id="node2_0" x="521530" y="57535" type="priority"/>
<node id="node2_1" x="521635" y="57385" type="priority"/>
<node id="node3_0" x="521387" y="57093" type="priority"/>
<node id="node3_1" x="521732" y="57032" type="priority"/>
<node id="node4_0" x="520955" y="56693" type="priority"/>
<node id="node4_1" x="521920" y="56605" type="priority"/>
<node id="node5_0" x="521360" y="55940" type="priority"/>
<node id="node5_1" x="521660" y="55437" type="priority"/>
<node id="node6_0" x="520987" y="54810" type="priority"/>
<node id="node6_1" x="521780" y="55117" type="priority"/>
<node id="node7_0" x="521000" y="53960" type="priority"/>
<node id="node7_1" x="521417" y="53371" type="priority"/>
<node id="node7_2" x="521856" y="54023" type="priority"/>
</nodes> 
